1
  PyMOL2.3          3D                             0

 20 22  0  0  0  0  0  0  0  0999 V2000
    1.7790   -6.6250    2.8500 C   0  0  0  0  0  0  0  0  0  0  0  0
   -1.5740  -15.7190    1.3830 C   0  0  0  0  0  0  0  0  0  0  0  0
   -2.1840  -15.3200    0.1620 O   0  0  0  0  0  0  0  0  0  0  0  0
   -0.0850  -15.4950    1.3450 C   0  0  0  0  0  0  0  0  0  0  0  0
    0.1940  -14.0990    1.1320 O   0  0  0  0  0  0  0  0  0  0  0  0
    0.6720  -15.8050    2.6250 C   0  0  0  0  0  0  0  0  0  0  0  0
    0.9180  -17.1900    2.7960 O   0  0  0  0  0  0  0  0  0  0  0  0
    1.9480  -14.9610    2.4930 C   0  0  0  0  0  0  0  0  0  0  0  0
    2.9760  -15.6750    1.8340 O   0  0  0  0  0  0  0  0  0  0  0  0
    1.5050  -13.8220    1.5670 C   0  0  0  0  0  0  0  0  0  0  0  0
    1.9630   -8.7680    0.9570 N   0  0  0  0  0  0  0  0  0  0  0  0
    2.0300   -9.7490    0.0300 C   0  0  0  0  0  0  0  0  0  0  0  0
    1.8890  -11.0470    0.3690 N   0  0  0  0  0  0  0  0  0  0  0  0
    1.6770  -11.3600    1.6560 C   0  0  0  0  0  0  0  0  0  0  0  0
    1.6100  -10.4100    2.5820 C   0  0  0  0  0  0  0  0  0  0  0  0
    1.7510   -9.0920    2.2250 C   0  0  0  0  0  0  0  0  0  0  0  0
    1.6760   -8.0400    3.2050 N   0  0  0  0  0  0  0  0  0  0  0  0
    1.3870  -11.0110    3.7750 N   0  0  0  0  0  0  0  0  0  0  0  0
    1.3280  -12.3190    3.5640 C   0  0  0  0  0  0  0  0  0  0  0  0
    1.4990  -12.5350    2.2640 N   0  0  0  0  0  0  0  0  0  0  0  0
  1 17  1  0  0  0  0
  2  3  1  0  0  0  0
  2  4  1  0  0  0  0
  4  5  1  0  0  0  0
  4  6  1  0  0  0  0
  5 10  1  0  0  0  0
  6  7  1  0  0  0  0
  6  8  1  0  0  0  0
  8  9  1  0  0  0  0
  8 10  1  0  0  0  0
 10 20  1  0  0  0  0
 11 12  4  0  0  0  0
 11 16  4  0  0  0  0
 12 13  4  0  0  0  0
 13 14  4  0  0  0  0
 14 15  4  0  0  0  0
 14 20  4  0  0  0  0
 15 16  4  0  0  0  0
 15 18  4  0  0  0  0
 16 17  1  0  0  0  0
 18 19  4  0  0  0  0
 19 20  4  0  0  0  0
M  END
>  <pdb_header>


$$$$
