# created with PyMOL 2.3.2
@<TRIPOS>MOLECULE
3ty4_A_rec
10 9 1                  
SMALL
USER_CHARGES
@<TRIPOS>ATOM
1	   N	-15.076	3.080	-1.532	N.am	1	ALA47	0.000	
2	  CA	-14.963	2.076	-0.466	C.3	1	ALA47	0.000	
3	   C	-15.536	2.691	0.799	C.2	1	ALA47	0.000	
4	   O	-15.653	3.904	0.891	O.2	1	ALA47	0.000	
5	  CB	-13.520	1.687	-0.225	C.3	1	ALA47	0.000	
6	   H	-15.363	4.003	-1.237	 H	1	ALA47	0.000	
7	  HA	-15.555	1.202	-0.741	 H	1	ALA47	0.000	
8	 HB1	-13.449	0.888	0.514	 H	1	ALA47	0.000	
9	 HB2	-13.038	1.321	-1.131	 H	1	ALA47	0.000	
10	 HB3	-12.935	2.527	0.147	 H	1	ALA47	0.000	
@<TRIPOS>BOND
1 1 2 1
2 1 6 1
3 2 3 1
4 2 5 1
5 2 7 1
6 3 4 2
7 5 8 1
8 5 9 1
9 5 10 1
@<TRIPOS>SUBSTRUCTURE
1	ALA47	1	RESIDUE	1 A	ALA
