# created with PyMOL 2.3.2
@<TRIPOS>MOLECULE
ARG
24 23 1                 
SMALL
USER_CHARGES
@<TRIPOS>ATOM
1	   N	35.386	18.943	26.502	N.3	1	ARG76	0.000	
2	  CA	36.465	19.660	27.176	C.3	1	ARG76	0.000	
3	   C	37.464	20.271	26.193	C.2	1	ARG76	0.000	
4	   O	38.242	21.150	26.562	O.2	1	ARG76	0.000	
5	  CB	37.176	18.719	28.160	C.3	1	ARG76	0.000	
6	  CG	36.397	18.476	29.444	C.3	1	ARG76	0.000	
7	  CD	37.020	17.370	30.287	C.3	1	ARG76	0.000	
8	  NE	36.934	16.080	29.588	N.pl3	1	ARG76	0.000	
9	  CZ	37.344	14.915	30.087	C.cat	1	ARG76	0.000	
10	 NH1	37.210	13.806	29.360	N.pl3	1	ARG76	0.000	
11	 NH2	37.879	14.846	31.305	N.pl3	1	ARG76	0.000	
12	NH11	37.484	12.908	29.738	 H	1	ARG76	0.000	
13	NH12	36.888	13.873	28.400	 H	1	ARG76	0.000	
14	NH21	38.153	13.949	31.684	 H	1	ARG76	0.000	
15	NH22	37.964	15.677	31.872	 H	1	ARG76	0.000	
16	   H	35.374	17.931	26.597	 H	1	ARG76	0.000	
17	  HA	36.052	20.493	27.750	 H	1	ARG76	0.000	
18	 HB2	37.459	17.804	27.640	 H	1	ARG76	0.000	
19	 HB3	38.123	19.170	28.463	 H	1	ARG76	0.000	
20	 HG2	36.259	19.385	30.030	 H	1	ARG76	0.000	
21	 HG3	35.397	18.164	29.152	 H	1	ARG76	0.000	
22	 HD2	38.085	17.577	30.399	 H	1	ARG76	0.000	
23	 HD3	36.594	17.350	31.290	 H	1	ARG76	0.000	
24	  HE	36.512	16.092	28.662	 H	1	ARG76	0.000	
@<TRIPOS>BOND
1 1 2 1
2 1 16 1
3 2 3 1
4 2 5 1
5 2 17 1
6 3 4 2
7 5 6 1
8 5 18 1
9 5 19 1
10 6 7 1
11 6 20 1
12 6 21 1
13 7 8 1
14 7 22 1
15 7 23 1
16 8 9 1
17 8 24 1
18 9 10 2
19 9 11 1
20 10 12 1
21 10 13 1
22 11 14 1
23 11 15 1
@<TRIPOS>SUBSTRUCTURE
1	ARG76	1	RESIDUE	1 A	ARG
