# created with PyMOL 2.3.2
@<TRIPOS>MOLECULE
3ty4_A_rec
12 11 1                 
SMALL
USER_CHARGES
@<TRIPOS>ATOM
1	   N	-15.679	7.654	4.192	N.am	1	ASP15	0.000	
2	  CA	-16.827	8.211	4.950	C.3	1	ASP15	0.000	
3	   C	-16.491	9.463	5.752	C.2	1	ASP15	0.000	
4	   O	-15.322	9.727	6.070	O.2	1	ASP15	0.000	
5	  CB	-17.360	7.167	5.946	C.3	1	ASP15	0.000	
6	  CG	-17.589	5.810	5.303	C.2	1	ASP15	0.000	
7	 OD1	-18.371	5.813	4.319	O.co2	1	ASP15	0.000	
8	 OD2	-16.980	4.820	5.785	O.co2	1	ASP15	0.000	
9	   H	-14.983	7.135	4.713	 H	1	ASP15	0.000	
10	  HA	-17.654	8.474	4.289	 H	1	ASP15	0.000	
11	 HB2	-16.660	7.050	6.777	 H	1	ASP15	0.000	
12	 HB3	-18.311	7.490	6.374	 H	1	ASP15	0.000	
@<TRIPOS>BOND
1 1 2 1
2 1 9 1
3 2 3 1
4 2 5 1
5 2 10 1
6 3 4 2
7 5 6 1
8 5 11 1
9 5 12 1
10 6 7 2
11 6 8 1
@<TRIPOS>SUBSTRUCTURE
1	ASP15	1	RESIDUE	1 A	ASP
