# created with PyMOL 2.3.2
@<TRIPOS>MOLECULE
3ty4_A_rec
11 10 1                 
SMALL
USER_CHARGES
@<TRIPOS>ATOM
1	   N	-2.718	2.345	-10.391	N.am	1	CYS71	0.000	
2	  CA	-2.143	3.303	-9.436	C.3	1	CYS71	0.000	
3	   C	-0.736	2.962	-8.959	C.2	1	CYS71	0.000	
4	   O	-0.343	1.785	-8.914	O.2	1	CYS71	0.000	
5	  CB	-3.061	3.390	-8.224	C.3	1	CYS71	0.000	
6	  SG	-4.705	4.004	-8.635	S.3	1	CYS71	0.000	
7	   H	-3.187	1.531	-10.019	 H	1	CYS71	0.000	
8	  HA	-2.118	4.306	-9.863	 H	1	CYS71	0.000	
9	 HB2	-3.157	2.429	-7.723	 H	1	CYS71	0.000	
10	 HB3	-2.643	4.076	-7.490	 H	1	CYS71	0.000	
11	  HG	-5.073	2.944	-9.361	 H	1	CYS71	0.000	
@<TRIPOS>BOND
1 1 2 1
2 1 7 1
3 2 3 1
4 2 5 1
5 2 8 1
6 3 4 2
7 5 6 1
8 5 9 1
9 5 10 1
10 6 11 1
@<TRIPOS>SUBSTRUCTURE
1	CYS71	1	RESIDUE	1 A	CYS
