# created with PyMOL 2.3.2
@<TRIPOS>MOLECULE
3ty4_A_rec
17 16 1                 
SMALL
USER_CHARGES
@<TRIPOS>ATOM
1	   N	11.729	12.964	-1.577	N.am	1	GLN319	0.000	
2	  CA	12.081	13.475	-0.266	C.3	1	GLN319	0.000	
3	   C	11.922	14.987	-0.179	C.2	1	GLN319	0.000	
4	   O	11.454	15.498	0.848	O.2	1	GLN319	0.000	
5	  CB	13.512	13.070	0.092	C.3	1	GLN319	0.000	
6	  CG	13.704	11.558	0.261	C.3	1	GLN319	0.000	
7	  CD	13.865	10.803	-1.069	C.2	1	GLN319	0.000	
8	 NE2	14.075	9.494	-0.979	N.pl3	1	GLN319	0.000	
9	 OE1	13.810	11.389	-2.153	O.2	1	GLN319	0.000	
10	NH21	14.209	8.946	-1.816	 H	1	GLN319	0.000	
11	NH22	14.107	9.040	-0.078	 H	1	GLN319	0.000	
12	   H	12.439	12.419	-2.053	 H	1	GLN319	0.000	
13	  HA	11.403	13.030	0.466	 H	1	GLN319	0.000	
14	 HB2	14.226	13.475	-0.628	 H	1	GLN319	0.000	
15	 HB3	13.772	13.537	1.044	 H	1	GLN319	0.000	
16	 HG2	14.609	11.383	0.843	 H	1	GLN319	0.000	
17	 HG3	12.881	11.127	0.833	 H	1	GLN319	0.000	
@<TRIPOS>BOND
1 1 2 1
2 1 12 1
3 2 3 1
4 2 5 1
5 2 13 1
6 3 4 2
7 5 6 1
8 5 14 1
9 5 15 1
10 6 7 1
11 6 16 1
12 6 17 1
13 7 8 1
14 7 9 2
15 8 10 1
16 8 11 1
@<TRIPOS>SUBSTRUCTURE
1	GLN319	1	RESIDUE	1 A	GLN
