# created with PyMOL 2.3.2
@<TRIPOS>MOLECULE
3ty4_A_rec
15 14 1                 
SMALL
USER_CHARGES
@<TRIPOS>ATOM
1	   N	7.772	10.350	0.843	N.am	1	GLU314	0.000	
2	  CA	9.076	9.875	1.319	C.3	1	GLU314	0.000	
3	   C	9.370	8.455	0.851	C.2	1	GLU314	0.000	
4	   O	10.478	8.171	0.395	O.2	1	GLU314	0.000	
5	  CB	9.189	9.919	2.860	C.3	1	GLU314	0.000	
6	  CG	9.160	11.317	3.445	C.3	1	GLU314	0.000	
7	  CD	9.496	11.331	4.937	C.2	1	GLU314	0.000	
8	 OE1	10.700	11.443	5.251	O.co2	1	GLU314	0.000	
9	 OE2	8.575	11.256	5.783	O.co2	1	GLU314	0.000	
10	   H	7.086	10.612	1.539	 H	1	GLU314	0.000	
11	  HA	9.845	10.528	0.899	 H	1	GLU314	0.000	
12	 HB2	8.417	9.315	3.330	 H	1	GLU314	0.000	
13	 HB3	10.129	9.445	3.151	 H	1	GLU314	0.000	
14	 HG2	9.866	11.957	2.914	 H	1	GLU314	0.000	
15	 HG3	8.183	11.768	3.305	 H	1	GLU314	0.000	
@<TRIPOS>BOND
1 1 2 1
2 1 10 1
3 2 3 1
4 2 5 1
5 2 11 1
6 3 4 2
7 5 6 1
8 5 12 1
9 5 13 1
10 6 7 1
11 6 14 1
12 6 15 1
13 7 8 2
14 7 9 1
@<TRIPOS>SUBSTRUCTURE
1	GLU314	1	RESIDUE	1 A	GLU
