# created with PyMOL 2.3.2
@<TRIPOS>MOLECULE
3ty4_A_rec
7 6 1                   
SMALL
USER_CHARGES
@<TRIPOS>ATOM
1	   N	-15.907	1.839	1.750	N.am	1	GLY48	0.000	
2	  CA	-16.207	2.301	3.113	C.3	1	GLY48	0.000	
3	   C	-17.611	1.870	3.533	C.2	1	GLY48	0.000	
4	   O	-18.251	1.026	2.870	O.2	1	GLY48	0.000	
5	   H	-15.859	0.841	1.585	 H	1	GLY48	0.000	
6	 HA2	-15.480	1.932	3.826	 H	1	GLY48	0.000	
7	 HA3	-16.159	3.388	3.205	 H	1	GLY48	0.000	
@<TRIPOS>BOND
1 1 2 1
2 1 5 1
3 2 3 1
4 2 6 1
5 2 7 1
6 3 4 2
@<TRIPOS>SUBSTRUCTURE
1	GLY48	1	RESIDUE	1 A	GLY
