# created with PyMOL 2.3.2
@<TRIPOS>MOLECULE
3ty4_A_rec
18 18 1                 
SMALL
USER_CHARGES
@<TRIPOS>ATOM
1	   N	9.676	20.675	-7.727	N.am	1	HIS36	0.000	
2	  CA	9.609	19.253	-7.404	C.3	1	HIS36	0.000	
3	   C	9.457	18.350	-8.625	C.2	1	HIS36	0.000	
4	   O	9.734	17.151	-8.551	O.2	1	HIS36	0.000	
5	  CB	8.515	18.995	-6.379	C.3	1	HIS36	0.000	
6	  CG	8.752	19.696	-5.081	C.2	1	HIS36	0.000	
7	 CD2	9.870	19.804	-4.322	C.2	1	HIS36	0.000	
8	 ND1	7.777	20.430	-4.441	N.pl3	1	HIS36	0.000	
9	 CE1	8.280	20.944	-3.331	C.2	1	HIS36	0.000	
10	 NE2	9.548	20.584	-3.241	N.2	1	HIS36	0.000	
11	 CH1	7.744	21.548	-2.614	 H	1	HIS36	0.000	
12	 CH2	10.860	19.394	-4.461	 H	1	HIS36	0.000	
13	 NH1	6.829	20.553	-4.766	 H	1	HIS36	0.000	
14	   H	8.890	21.258	-7.472	 H	1	HIS36	0.000	
15	  HA	10.550	18.964	-6.926	 H	1	HIS36	0.000	
16	 HB2	7.542	19.298	-6.772	 H	1	HIS36	0.000	
17	 HB3	8.434	17.929	-6.157	 H	1	HIS36	0.000	
18	 HXT	9.098	18.824	-9.539	 H	1	HIS36	0.000	
@<TRIPOS>BOND
1 1 2 1
2 1 14 1
3 2 3 1
4 2 5 1
5 2 15 1
6 3 4 2
7 3 18 1
8 5 6 1
9 5 16 1
10 5 17 1
11 6 7 2
12 6 8 1
13 7 10 1
14 7 12 1
15 8 9 1
16 8 13 1
17 9 10 2
18 9 11 1
@<TRIPOS>SUBSTRUCTURE
1	HIS36	1	RESIDUE	1 A	HIS
