# created with PyMOL 2.3.2
@<TRIPOS>MOLECULE
3ty4_A_rec
19 18 1                 
SMALL
USER_CHARGES
@<TRIPOS>ATOM
1	   N	2.911	10.461	-10.868	N.am	1	ILE7	0.000	
2	  CA	2.341	9.540	-9.872	C.3	1	ILE7	0.000	
3	   C	0.846	9.431	-10.126	C.2	1	ILE7	0.000	
4	   O	0.150	10.460	-10.184	O.2	1	ILE7	0.000	
5	  CB	2.572	9.999	-8.417	C.3	1	ILE7	0.000	
6	 CG1	4.066	9.900	-8.071	C.3	1	ILE7	0.000	
7	 CG2	1.734	9.166	-7.455	C.3	1	ILE7	0.000	
8	 CD1	4.389	10.345	-6.651	C.3	1	ILE7	0.000	
9	CH11	5.451	10.525	-6.532	 H	1	ILE7	0.000	
10	CH12	4.404	8.871	-8.201	 H	1	ILE7	0.000	
11	CH12	3.877	11.276	-6.405	 H	1	ILE7	0.000	
12	CH13	4.656	10.497	-8.766	 H	1	ILE7	0.000	
13	CH13	4.108	9.611	-5.902	 H	1	ILE7	0.000	
14	CH21	1.964	9.375	-6.412	 H	1	ILE7	0.000	
15	CH22	0.667	9.372	-7.534	 H	1	ILE7	0.000	
16	CH23	1.877	8.101	-7.621	 H	1	ILE7	0.000	
17	   H	2.442	11.348	-10.980	 H	1	ILE7	0.000	
18	  HA	2.760	8.537	-9.967	 H	1	ILE7	0.000	
19	  HB	2.272	11.044	-8.317	 H	1	ILE7	0.000	
@<TRIPOS>BOND
1 1 2 1
2 1 17 1
3 2 3 1
4 2 5 1
5 2 18 1
6 3 4 2
7 5 6 1
8 5 7 1
9 5 19 1
10 6 8 1
11 6 10 1
12 6 12 1
13 7 14 1
14 7 15 1
15 7 16 1
16 8 9 1
17 8 11 1
18 8 13 1
@<TRIPOS>SUBSTRUCTURE
1	ILE7	1	RESIDUE	1 A	ILE
