# created with PyMOL 2.3.2
@<TRIPOS>MOLECULE
3ty4_A_rec
19 18 1                 
SMALL
USER_CHARGES
@<TRIPOS>ATOM
1	   N	-2.399	8.401	-8.443	N.am	1	LEU9	0.000	
2	  CA	-2.810	8.215	-7.057	C.3	1	LEU9	0.000	
3	   C	-4.290	7.917	-6.956	C.2	1	LEU9	0.000	
4	   O	-5.123	8.678	-7.458	O.2	1	LEU9	0.000	
5	  CB	-2.519	9.500	-6.286	C.3	1	LEU9	0.000	
6	  CG	-2.637	9.441	-4.777	C.3	1	LEU9	0.000	
7	 CD1	-1.490	8.640	-4.180	C.3	1	LEU9	0.000	
8	 CD2	-2.687	10.821	-4.176	C.3	1	LEU9	0.000	
9	CH11	-1.813	8.081	-3.305	 H	1	LEU9	0.000	
10	CH12	-1.049	7.937	-4.882	 H	1	LEU9	0.000	
11	CH13	-0.678	9.293	-3.866	 H	1	LEU9	0.000	
12	CH21	-2.473	10.803	-3.107	 H	1	LEU9	0.000	
13	CH22	-1.951	11.466	-4.655	 H	1	LEU9	0.000	
14	CH23	-3.659	11.288	-4.316	 H	1	LEU9	0.000	
15	   H	-2.706	9.243	-8.914	 H	1	LEU9	0.000	
16	  HA	-2.257	7.405	-6.590	 H	1	LEU9	0.000	
17	 HB2	-1.511	9.839	-6.529	 H	1	LEU9	0.000	
18	 HB3	-3.169	10.292	-6.664	 H	1	LEU9	0.000	
19	  HG	-3.569	8.944	-4.505	 H	1	LEU9	0.000	
@<TRIPOS>BOND
1 1 2 1
2 1 15 1
3 2 3 1
4 2 5 1
5 2 16 1
6 3 4 2
7 5 6 1
8 5 17 1
9 5 18 1
10 6 7 1
11 6 8 1
12 6 19 1
13 7 9 1
14 7 10 1
15 7 11 1
16 8 12 1
17 8 13 1
18 8 14 1
@<TRIPOS>SUBSTRUCTURE
1	LEU9	1	RESIDUE	1 A	LEU
