# created with PyMOL 2.3.2
@<TRIPOS>MOLECULE
3ty4_A_rec
22 21 1                 
SMALL
USER_CHARGES
@<TRIPOS>ATOM
1	   N	-14.315	12.587	3.273	N.am	1	LYS19	0.000	
2	  CA	-14.779	13.282	2.068	C.3	1	LYS19	0.000	
3	   C	-14.361	14.750	2.027	C.2	1	LYS19	0.000	
4	   O	-14.542	15.431	0.982	O.2	1	LYS19	0.000	
5	  CB	-16.313	13.178	1.953	C.3	1	LYS19	0.000	
6	  CG	-16.851	11.752	2.010	C.3	1	LYS19	0.000	
7	  CD	-18.349	11.793	1.764	C.3	1	LYS19	0.000	
8	  CE	-18.991	10.407	1.773	C.3	1	LYS19	0.000	
9	  NZ	-20.488	10.557	1.830	N.4	1	LYS19	0.000	
10	   H	-15.013	12.354	3.967	 H	1	LYS19	0.000	
11	  HA	-14.341	12.810	1.189	 H	1	LYS19	0.000	
12	 HB2	-16.774	13.757	2.756	 H	1	LYS19	0.000	
13	 HB3	-16.630	13.647	1.020	 H	1	LYS19	0.000	
14	 HG2	-16.361	11.134	1.256	 H	1	LYS19	0.000	
15	 HG3	-16.646	11.295	2.979	 H	1	LYS19	0.000	
16	 HD2	-18.807	12.424	2.529	 H	1	LYS19	0.000	
17	 HD3	-18.551	12.277	0.807	 H	1	LYS19	0.000	
18	 HE2	-18.698	9.829	0.896	 H	1	LYS19	0.000	
19	 HE3	-18.679	9.850	2.656	 H	1	LYS19	0.000	
20	 HZ1	-20.809	11.057	1.013	 H	1	LYS19	0.000	
21	 HZ2	-20.916	9.642	1.854	 H	1	LYS19	0.000	
22	 HZ3	-20.745	11.069	2.662	 H	1	LYS19	0.000	
@<TRIPOS>BOND
1 1 2 1
2 1 10 1
3 2 3 1
4 2 5 1
5 2 11 1
6 3 4 2
7 5 6 1
8 5 12 1
9 5 13 1
10 6 7 1
11 6 14 1
12 6 15 1
13 7 8 1
14 7 16 1
15 7 17 1
16 8 9 1
17 8 18 1
18 8 19 1
19 9 20 1
20 9 21 1
21 9 22 1
@<TRIPOS>SUBSTRUCTURE
1	LYS19	1	RESIDUE	1 A	LYS
