# created with PyMOL 2.3.2
@<TRIPOS>MOLECULE
3ty4_A_rec
17 16 1                 
SMALL
USER_CHARGES
@<TRIPOS>ATOM
1	   N	-1.658	18.593	-3.351	N.am	1	MET29	0.000	
2	  CA	-0.826	17.883	-4.333	C.3	1	MET29	0.000	
3	   C	-0.799	18.577	-5.697	C.2	1	MET29	0.000	
4	   O	0.263	18.649	-6.319	O.2	1	MET29	0.000	
5	  CB	-1.246	16.422	-4.457	C.3	1	MET29	0.000	
6	  CG	-0.789	15.609	-3.252	C.3	1	MET29	0.000	
7	  SD	-1.347	13.902	-3.366	S.3	1	MET29	0.000	
8	  CE	-2.976	13.969	-2.626	C.3	1	MET29	0.000	
9	   H	-2.470	18.114	-2.982	 H	1	MET29	0.000	
10	  HA	0.200	17.892	-3.963	 H	1	MET29	0.000	
11	 HB2	-2.329	16.352	-4.570	 H	1	MET29	0.000	
12	 HB3	-0.821	15.977	-5.356	 H	1	MET29	0.000	
13	 HG2	0.300	15.604	-3.200	 H	1	MET29	0.000	
14	 HG3	-1.150	16.045	-2.320	 H	1	MET29	0.000	
15	 HE1	-3.370	12.967	-2.465	 H	1	MET29	0.000	
16	 HE2	-2.936	14.476	-1.665	 H	1	MET29	0.000	
17	 HE3	-3.660	14.503	-3.279	 H	1	MET29	0.000	
@<TRIPOS>BOND
1 1 2 1
2 1 9 1
3 2 3 1
4 2 5 1
5 2 10 1
6 3 4 2
7 5 6 1
8 5 11 1
9 5 12 1
10 6 7 1
11 6 13 1
12 6 14 1
13 7 8 1
14 8 15 1
15 8 16 1
16 8 17 1
@<TRIPOS>SUBSTRUCTURE
1	MET29	1	RESIDUE	1 A	MET
