# created with PyMOL 2.3.2
@<TRIPOS>MOLECULE
PHE
20 20 1                 
SMALL
USER_CHARGES
@<TRIPOS>ATOM
1	   N	44.370	5.497	28.133	N.3	1	PHE104	0.000	
2	  CA	45.160	4.378	28.642	C.3	1	PHE104	0.000	
3	   C	45.138	4.209	30.179	C.2	1	PHE104	0.000	
4	   O	45.808	3.336	30.695	O.2	1	PHE104	0.000	
5	  CB	46.611	4.473	28.155	C.3	1	PHE104	0.000	
6	  CG	46.758	4.466	26.662	C.2	1	PHE104	0.000	
7	 CD1	46.148	3.485	25.893	C.2	1	PHE104	0.000	
8	 CD2	47.562	5.402	26.030	C.2	1	PHE104	0.000	
9	 CE1	46.296	3.482	24.520	C.2	1	PHE104	0.000	
10	 CE2	47.711	5.399	24.663	C.2	1	PHE104	0.000	
11	  CZ	47.082	4.435	23.902	C.2	1	PHE104	0.000	
12	 CH1	45.548	2.713	26.351	 H	1	PHE104	0.000	
13	 CH1	45.830	2.712	23.926	 H	1	PHE104	0.000	
14	 CH2	48.069	6.160	26.610	 H	1	PHE104	0.000	
15	 CH2	48.336	6.139	24.187	 H	1	PHE104	0.000	
16	   H	44.821	6.398	28.071	 H	1	PHE104	0.000	
17	  HA	44.761	3.435	28.266	 H	1	PHE104	0.000	
18	 HB2	47.055	5.389	28.548	 H	1	PHE104	0.000	
19	 HB3	47.215	3.653	28.547	 H	1	PHE104	0.000	
20	  HZ	47.219	4.416	22.833	 H	1	PHE104	0.000	
@<TRIPOS>BOND
1 1 2 1
2 1 16 1
3 2 3 1
4 2 5 1
5 2 17 1
6 3 4 2
7 5 6 1
8 5 18 1
9 5 19 1
10 6 7 2
11 6 8 1
12 7 9 1
13 7 12 1
14 8 10 2
15 8 14 1
16 9 11 2
17 9 13 1
18 10 11 1
19 10 15 1
20 11 20 1
@<TRIPOS>SUBSTRUCTURE
1	PHE104	1	RESIDUE	1 A	PHE
