# created with PyMOL 2.3.2
@<TRIPOS>MOLECULE
3ty4_A_rec
14 14 1                 
SMALL
USER_CHARGES
@<TRIPOS>ATOM
1	   N	-10.168	15.680	-0.531	N.am	1	PRO23	0.000	
2	  CA	-10.138	16.822	-1.469	C.3	1	PRO23	0.000	
3	   C	-9.117	17.892	-1.111	C.2	1	PRO23	0.000	
4	   O	-8.480	18.433	-2.017	O.2	1	PRO23	0.000	
5	  CB	-11.559	17.392	-1.387	C.3	1	PRO23	0.000	
6	  CG	-12.388	16.146	-1.168	C.3	1	PRO23	0.000	
7	  CD	-11.555	15.335	-0.170	C.3	1	PRO23	0.000	
8	  HA	-9.946	16.440	-2.474	 H	1	PRO23	0.000	
9	 HB2	-11.680	18.067	-0.537	 H	1	PRO23	0.000	
10	 HB3	-11.850	17.930	-2.290	 H	1	PRO23	0.000	
11	 HG2	-13.398	16.388	-0.855	 H	1	PRO23	0.000	
12	 HG3	-12.464	15.595	-2.107	 H	1	PRO23	0.000	
13	 HD2	-11.758	15.646	0.845	 H	1	PRO23	0.000	
14	 HD3	-11.777	14.273	-0.255	 H	1	PRO23	0.000	
@<TRIPOS>BOND
1 1 2 1
2 1 7 1
3 2 3 1
4 2 5 1
5 2 8 1
6 3 4 2
7 5 6 1
8 5 9 1
9 5 10 1
10 6 7 1
11 6 11 1
12 6 12 1
13 7 13 1
14 7 14 1
@<TRIPOS>SUBSTRUCTURE
1	PRO23	1	RESIDUE	1 A	PRO
