# created with PyMOL 2.3.2
@<TRIPOS>MOLECULE
3ty4_A_rec
11 10 1                 
SMALL
USER_CHARGES
@<TRIPOS>ATOM
1	   N	-16.970	-6.280	6.280	N.am	1	SER90	0.000	
2	  CA	-15.635	-6.416	6.851	C.3	1	SER90	0.000	
3	   C	-14.849	-5.155	6.528	C.2	1	SER90	0.000	
4	   O	-15.019	-4.573	5.456	O.2	1	SER90	0.000	
5	  CB	-14.903	-7.641	6.297	C.3	1	SER90	0.000	
6	  OG	-15.003	-7.692	4.891	O.3	1	SER90	0.000	
7	   H	-17.042	-5.720	5.443	 H	1	SER90	0.000	
8	  HA	-15.680	-6.496	7.940	 H	1	SER90	0.000	
9	 HB2	-13.852	-7.647	6.589	 H	1	SER90	0.000	
10	 HB3	-15.346	-8.551	6.702	 H	1	SER90	0.000	
11	  HG	-15.918	-7.866	4.661	 H	1	SER90	0.000	
@<TRIPOS>BOND
1 1 2 1
2 1 7 1
3 2 3 1
4 2 5 1
5 2 8 1
6 3 4 2
7 5 6 1
8 5 9 1
9 5 10 1
10 6 11 1
@<TRIPOS>SUBSTRUCTURE
1	SER90	1	RESIDUE	1 A	SER
