# created with PyMOL 2.3.2
@<TRIPOS>MOLECULE
3ty4_A_rec
14 13 1                 
SMALL
USER_CHARGES
@<TRIPOS>ATOM
1	   N	-20.309	2.728	1.014	N.am	1	THR51	0.000	
2	  CA	-20.268	1.764	-0.073	C.3	1	THR51	0.000	
3	   C	-21.009	0.487	0.299	C.2	1	THR51	0.000	
4	   O	-21.756	-0.060	-0.522	O.2	1	THR51	0.000	
5	  CB	-18.833	1.432	-0.432	C.3	1	THR51	0.000	
6	 CG2	-18.782	0.750	-1.779	C.3	1	THR51	0.000	
7	 OG1	-18.117	2.654	-0.527	O.3	1	THR51	0.000	
8	CH21	-17.758	0.698	-2.147	 H	1	THR51	0.000	
9	CH22	-19.159	-0.270	-1.735	 H	1	THR51	0.000	
10	CH23	-19.372	1.276	-2.527	 H	1	THR51	0.000	
11	 OH1	-18.248	3.049	-1.398	 H	1	THR51	0.000	
12	   H	-19.424	3.017	1.408	 H	1	THR51	0.000	
13	  HA	-20.775	2.198	-0.935	 H	1	THR51	0.000	
14	  HB	-18.347	0.805	0.315	 H	1	THR51	0.000	
@<TRIPOS>BOND
1 1 2 1
2 1 12 1
3 2 3 1
4 2 5 1
5 2 13 1
6 3 4 2
7 5 6 1
8 5 7 1
9 5 14 1
10 6 8 1
11 6 9 1
12 6 10 1
13 7 11 1
@<TRIPOS>SUBSTRUCTURE
1	THR51	1	RESIDUE	1 A	THR
