# created with PyMOL 2.3.2
@<TRIPOS>MOLECULE
3ty4_A_rec
24 25 1                 
SMALL
USER_CHARGES
@<TRIPOS>ATOM
1	   N	-18.067	2.457	4.641	N.am	1	TRP49	0.000	
2	  CA	-19.393	2.151	5.183	C.3	1	TRP49	0.000	
3	   C	-20.529	2.538	4.236	C.2	1	TRP49	0.000	
4	   O	-21.488	1.770	4.032	O.2	1	TRP49	0.000	
5	  CB	-19.596	2.824	6.547	C.3	1	TRP49	0.000	
6	  CG	-20.945	2.491	7.119	C.2	1	TRP49	0.000	
7	 CD1	-22.037	3.309	7.180	C.2	1	TRP49	0.000	
8	 CD2	-21.335	1.238	7.670	C.2	1	TRP49	0.000	
9	 CE2	-22.676	1.366	8.082	C.2	1	TRP49	0.000	
10	 CE3	-20.668	0.032	7.894	C.2	1	TRP49	0.000	
11	 NE1	-23.095	2.633	7.758	N.pl3	1	TRP49	0.000	
12	 CZ2	-23.388	0.308	8.681	C.2	1	TRP49	0.000	
13	 CZ3	-21.370	-1.030	8.494	C.2	1	TRP49	0.000	
14	 CH2	-22.714	-0.871	8.883	C.2	1	TRP49	0.000	
15	 CH1	-22.062	4.324	6.809	 H	1	TRP49	0.000	
16	 CH2	-24.422	0.421	8.972	 H	1	TRP49	0.000	
17	 CH2	-23.236	-1.699	9.334	 H	1	TRP49	0.000	
18	 CH3	-19.633	-0.080	7.611	 H	1	TRP49	0.000	
19	 CH3	-20.872	-1.973	8.665	 H	1	TRP49	0.000	
20	 NH1	-24.028	3.017	7.852	 H	1	TRP49	0.000	
21	   H	-17.534	3.185	5.108	 H	1	TRP49	0.000	
22	  HA	-19.444	1.070	5.329	 H	1	TRP49	0.000	
23	 HB2	-18.821	2.487	7.232	 H	1	TRP49	0.000	
24	 HB3	-19.508	3.907	6.471	 H	1	TRP49	0.000	
@<TRIPOS>BOND
1 1 2 1
2 1 21 1
3 2 3 1
4 2 5 1
5 2 22 1
6 3 4 2
7 5 6 1
8 5 23 1
9 5 24 1
10 6 7 2
11 6 8 1
12 7 11 1
13 7 15 1
14 8 9 2
15 8 10 1
16 9 12 1
17 10 13 2
18 10 18 1
19 9 11 1
20 11 20 1
21 12 14 2
22 12 16 1
23 13 14 1
24 13 19 1
25 14 17 1
@<TRIPOS>SUBSTRUCTURE
1	TRP49	1	RESIDUE	1 A	TRP
