# created with PyMOL 2.3.2
@<TRIPOS>MOLECULE
TYR
22 22 1                 
SMALL
USER_CHARGES
@<TRIPOS>ATOM
1	   N	38.903	9.674	31.359	N.3	1	TYR109	0.000	
2	  CA	37.621	9.051	30.996	C.3	1	TYR109	0.000	
3	   C	37.451	7.779	31.837	C.2	1	TYR109	0.000	
4	   O	38.195	6.832	31.653	O.2	1	TYR109	0.000	
5	  CB	37.582	8.697	29.502	C.3	1	TYR109	0.000	
6	  CG	37.827	9.822	28.508	C.2	1	TYR109	0.000	
7	 CD1	39.121	10.233	28.192	C.2	1	TYR109	0.000	
8	 CD2	36.774	10.432	27.832	C.2	1	TYR109	0.000	
9	 CE1	39.346	11.220	27.254	C.2	1	TYR109	0.000	
10	 CE2	36.993	11.425	26.888	C.2	1	TYR109	0.000	
11	  CZ	38.289	11.826	26.606	C.2	1	TYR109	0.000	
12	  OH	38.534	12.829	25.655	O.3	1	TYR109	0.000	
13	 CH1	39.965	9.764	28.676	 H	1	TYR109	0.000	
14	 CH1	40.359	11.519	27.029	 H	1	TYR109	0.000	
15	 CH2	35.765	10.118	28.046	 H	1	TYR109	0.000	
16	 CH2	36.159	11.884	26.378	 H	1	TYR109	0.000	
17	   H	39.695	9.055	31.461	 H	1	TYR109	0.000	
18	  HA	36.773	9.704	31.216	 H	1	TYR109	0.000	
19	 HB2	38.313	7.919	29.269	 H	1	TYR109	0.000	
20	 HB3	36.608	8.260	29.274	 H	1	TYR109	0.000	
21	  HH	37.845	13.509	25.670	 H	1	TYR109	0.000	
22	 HXT	36.652	7.786	32.579	 H	1	TYR109	0.000	
@<TRIPOS>BOND
1 1 2 1
2 1 17 1
3 2 3 1
4 2 5 1
5 2 18 1
6 3 4 2
7 3 22 1
8 5 6 1
9 5 19 1
10 5 20 1
11 6 7 2
12 6 8 1
13 7 9 1
14 7 13 1
15 8 10 2
16 8 15 1
17 9 11 2
18 9 14 1
19 10 11 1
20 10 16 1
21 11 12 1
22 12 21 1
@<TRIPOS>SUBSTRUCTURE
1	TYR109	1	RESIDUE	1 A	TYR
